
**** 07/05/24 19:54:25 ****** PSpice 23.1.0 (29 May 2024) ***** ID# 0 ********

 ** Profile: "LM5123-Q1_STARTUP-trans"  [ F:\Temp\lm5123sim\LM5123-Q1_PSPICE_TRANS\lm5123-q1_pspice_trans-pspicefiles\lm5123-q1_start


 ****     CIRCUIT DESCRIPTION


******************************************************************************




** Creating circuit file "trans.cir" 
** WARNING: THIS AUTOMATICALLY GENERATED FILE MAY BE OVERWRITTEN BY SUBSEQUENT SIMULATIONS

*Libraries: 
* Profile Libraries :
* Local Libraries :
.LIB "../../../lm5123-q1_trans.lib" 
* From [PSPICE NETLIST] section of C:\Users\Alex\cdssetup\OrCAD_PSpice\23.1.0\PSpice.ini file:
.lib "nom.lib" 

*Analysis directives: 
.TRAN  0 4ms 0 20n 
.OPTIONS ADVCONV
.OPTIONS ITL4= 50
.PROBE64 V(*) I(*) 
.INC "..\LM5123-Q1_STARTUP.net" 



**** INCLUDING LM5123-Q1_STARTUP.net ****
* source LM5123-Q1_PSPICE_TRANS
V_V1         CSP 0  
+PWL 0 0 500u 11 2m 11 
C_C22         HB SW  5n IC=0 TC=0,0 
R_R19         0 TRK  27k TC=0,0 
R_RLoad         0 VLOAD  {53.5/6} TC=0,0 
L_L1         N16776001 N16775611  820n  
R_R7         CSP CSN  1.25m TC=0,0 
R_R16         UVLO CSP  77k TC=0,0 
C_C20         0 SS  50n IC=0 TC=0,0 
C_C16         N36337 VLOAD  1m IC=0 TC=0,0 
C_C19         0 N37329  1n IC=0 TC=0,0 
X_S10    LO 0 SW 0 LM5123-Q1_STARTUP_S10 
R_R8         0 N36337  1m TC=0,0 
C_C18         0 COMP  2p IC=0 TC=0,0 
X_S11    HO SW VLOAD SW LM5123-Q1_STARTUP_S11 
V_V2         N41902 0 5V
D_D4         0 SW D_0p7 
D_D5         SW VLOAD D_0p7 
R_R15         N37329 COMP  330k TC=0,0 
R_R18         TRK VREF  3.3k TC=0,0 
R_R20         N00155 N41902  9k TC=0,0 
C_C21         0 VCC  1u IC=0 TC=0,0 
R_R17         0 UVLO  9.6k TC=0,0 
X_U1         CSP COMP CSN CSP HB HO LO VCC N00155 SS SW TRK UVLO VCC VCC VLOAD
+  VREF 0 0 LM5123-Q1_TRANS PARAMS: FSW=2000k
R_R21         N16775611 N16776001  2.3m TC=0,0 
X_L2          CSN  SW B82477P4821M000

.subckt LM5123-Q1_STARTUP_S10 1 2 3 4  
S_S10         3 4 1 2 _S10
RS_S10         1 2 1G
.MODEL         _S10 VSWITCH Roff=1e9 Ron=4m Voff=0.5 Von=1
.ends LM5123-Q1_STARTUP_S10

.subckt LM5123-Q1_STARTUP_S11 1 2 3 4  
S_S11         3 4 1 2 _S11
RS_S11         1 2 1G
.MODEL         _S11 VSWITCH Roff=1e9 Ron=4m Voff=0.5 Von=1
.ends LM5123-Q1_STARTUP_S11

**** RESUMING trans.cir ****
.END


INFO(ORPSIM-15423): Unable to find index file nom.ind for library file nom.lib.

INFO(ORPSIM-15422): Making new index file nom.ind for library file nom.lib.

Index has 34750 entries from 213 file(s).

ERROR(ORPSIM-15142): Node N16776001 is floating

ERROR(ORPSIM-15142): Node N16775611 is floating
