
**** 08/27/25 11:02:26 **** PSpice 23.1.0 (30 January 2024) *** ID# 0 ********

 ** Profile: "LM5123-Q1_STARTUP-trans"  [ e:\users\alex\documents\electronics projects\modular audio\design_simulations\lm5123sim\lm5


 ****     CIRCUIT DESCRIPTION


******************************************************************************




** Creating circuit file "trans.cir" 
** WARNING: THIS AUTOMATICALLY GENERATED FILE MAY BE OVERWRITTEN BY SUBSEQUENT SIMULATIONS

*Libraries: 
* Profile Libraries :
* Local Libraries :
.LIB "../../../lm5123-q1_trans.lib" 
* From [PSPICE NETLIST] section of C:\cds_spb_home\cdssetup\OrCAD_PSpiceTIPSpice_Install\23.1.0\PSpice.ini file:
.lib "nom_pspti.lib" 
.lib "nom.lib" 

*Analysis directives: 
.TRAN  0 6m 0 20n 
.OPTIONS ADVCONV
.OPTIONS FILEMODELSEARCH
.OPTIONS ITL4= 50
.PROBE64 V(*) I(*) 
.INC "..\LM5123-Q1_STARTUP.net" 



**** INCLUDING LM5123-Q1_STARTUP.net ****
* source LM5123-Q1_PSPICE_TRANS
V_V1         N16788432 0  
+PWL 0 0 50u 24 8m 24 
C_C22         HB SW  5n IC=0 TC=0,0 
R_R7         CSP CSN  1.5m TC=0,0 
R_R16         UVLO CSP  77k TC=0,0 
C_C20         0 SS  10n IC=-0.7 TC=0,0 
C_C16         N36337 N36233  {3*1m} IC={-V_INIT} TC=0,0 
C_C19         0 N37329  1.5n IC=0 TC=0,0 
X_S10    LO 0 SW 0 LM5123-Q1_STARTUP_S10 
R_R8         0 N36337  {20m/3} TC=0,0 
C_C18         0 COMP  22p IC=0 TC=0,0 
X_S11    HO SW N36233 SW LM5123-Q1_STARTUP_S11 
V_V2         N41902 0 5V
D_D4         0 SW D_0p7 
D_D5         SW N36233 D_0p7 
R_R15         N37329 COMP  220k TC=0,0 
R_R18         0 VREF  35k TC=0,0 
R_R20         N00155 N41902  9k TC=0,0 
C_C21         0 VCC  1u IC=0 TC=0,0 
R_R17         0 UVLO  9.6k TC=0,0 
X_U1         CSP COMP CSN CSP HB HO LO VCC N00155 SS SW N16778147 UVLO VCC VCC
+  N36233 VREF 0 0 LM5123-Q1_TRANS PARAMS: FSW=1000k
X_L1    CSN SW LM5123-Q1_STARTUP_L1 
R_R21         0 N16779187  {20m/2} TC=0,0 
C_C23         N16779187 VLOAD  {2*1m} IC={-V_INIT} TC=0,0 
R_R22         0 N16780036  {2m/20} TC=0,0 
C_C24         N16780036 N36233  {20*2.3u} IC={-V_INIT} TC=0,0 
V_V4         N16781499 0  
+PULSE 0 12 1 10u 10u 2m 2
R_RL1         0 VLOAD  {53.5/6} TC=0,0 
R_RL2         N16783904 VLOAD  {53.5/6} TC=0,0 
V_V5         N16778147 0  
+PWL 0 892m 2m 892m 5m 892m 6m 892m 9m 892m 10m 892m 
L_L2         N36233 N16789416  100n  TC=0,0 
------------------------------------------$
ERROR(ORPSIM-16015): Unknown parameter.
C_C25         N16787814 CSP  1m  TC=0,0 
R_R23         0 N16787814  30m TC=0,0 
R_R24         0 N16788000  10m TC=0,0 
C_C26         N16788000 CSP  30u  TC=0,0 
R_R25         0 N16788108  10m TC=0,0 
C_C27         N16788108 CSP  1u  TC=0,0 
R_R26         N16788432 N16788435  30m TC=0,0 
L_L3         N16788435 CSP  100n  TC=0,0 
---------------------------------------$
ERROR(ORPSIM-16015): Unknown parameter.
R_R27         N16789416 VLOAD  30m TC=0,0 
C_C28         N16791136 N36233  405n IC={-V_INIT} TC=0,0 
R_R28         0 N16791136  5m TC=0,0 
R_R29         0 N16791345  25m TC=0,0 
C_C29         N16791345 N36233  45n IC={-V_INIT} TC=0,0 
M_M1         N16783904 N16781499 0 0 IRF244
.PARAM  v_init=0

.subckt LM5123-Q1_STARTUP_S10 1 2 3 4  
S_S10         3 4 1 2 _S10
RS_S10         1 2 1G
.MODEL         _S10 VSWITCH Roff=1e9 Ron=4m Voff=0.5 Von=1
.ends LM5123-Q1_STARTUP_S10

.subckt LM5123-Q1_STARTUP_S11 1 2 3 4  
S_S11         3 4 1 2 _S11
RS_S11         1 2 1G
.MODEL         _S11 VSWITCH Roff=1e9 Ron=4m Voff=0.5 Von=1
.ends LM5123-Q1_STARTUP_S11

.subckt LM5123-Q1_STARTUP_L1 1 2  
L_L1         1 _SR L_L1 1.5u  
.model         L_L1 IND L=1    IL1=-0.004 IL2=0 
RRDC_L1         _SR 2 0.0023   
.ends LM5123-Q1_STARTUP_L1

**** RESUMING trans.cir ****
.END
