
**** 07/21/24 22:49:59 ****** PSpice 23.1.0 (29 May 2024) ***** ID# 0 ********

 ** Profile: "LM5123-Q1_STARTUP-trans"  [ E:\Users\Alex\Documents\Electronics Projects\Modular Audio\design_simulations\lm5123sim\LM5


 ****     CIRCUIT DESCRIPTION


******************************************************************************




** Creating circuit file "trans.cir" 
** WARNING: THIS AUTOMATICALLY GENERATED FILE MAY BE OVERWRITTEN BY SUBSEQUENT SIMULATIONS

*Libraries: 
* Profile Libraries :
* Local Libraries :
.LIB "../../../lm5123-q1_trans.lib" 
* From [PSPICE NETLIST] section of C:\Users\Alex\cdssetup\OrCAD_PSpice\23.1.0\PSpice.ini file:
.lib "nom.lib" 

*Analysis directives: 
.TRAN  0 8m 0 20n 
.OPTIONS ADVCONV
.OPTIONS ITL4= 50
.PROBE64 V(*) I(*) 
.INC "..\LM5123-Q1_STARTUP.net" 



**** INCLUDING LM5123-Q1_STARTUP.net ****
* source LM5123-Q1_PSPICE_TRANS
V_V1         CSP 0  
+PWL 0 0 50u 11 4m 11 
C_C22         HB SW  5n IC=0 TC=0,0 
R_R7         CSP CSN  1.5m TC=0,0 
R_R16         UVLO CSP  77k TC=0,0 
C_C20         0 SS  10n IC=-0.7 TC=0,0 
C_C16         N36337 VLOAD  560u IC=-51.5 TC=0,0 
C_C19         0 N37329  1.5n IC=0 TC=0,0 
X_S10    LO 0 SW 0 LM5123-Q1_STARTUP_S10 
R_R8         0 N36337  27m TC=0,0 
C_C18         0 COMP  33p IC=0 TC=0,0 
X_S11    HO SW VLOAD SW LM5123-Q1_STARTUP_S11 
V_V2         N41902 0 5V
D_D4         0 SW D_0p7 
D_D5         SW VLOAD D_0p7 
R_R15         N37329 COMP  200k TC=0,0 
R_R18         0 VREF  35k TC=0,0 
R_R20         N00155 N41902  9k TC=0,0 
C_C21         0 VCC  1u IC=0 TC=0,0 
R_R17         0 UVLO  9.6k TC=0,0 
X_U1         CSP COMP CSN CSP HB HO LO VCC N00155 SS SW N16778147 UVLO VCC VCC
+  VLOAD VREF 0 0 LM5123-Q1_TRANS PARAMS: FSW=1000k
X_L1    CSN SW LM5123-Q1_STARTUP_L1 
V_V3         N16778147 0 892m
R_R21         0 N16779187  27m TC=0,0 
C_C23         N16779187 VLOAD  560u IC=-51.5 TC=0,0 
R_R22         0 N16780036  2m TC=0,0 
C_C24         N16780036 VLOAD  10u IC=-51.5 TC=0,0 
V_V4         N16781499 0  
+PULSE 0 12 2m 10u 10u 3m 2
X_S13    LM5123-Q1_STARTUP_S13 
-------------------------------$
ERROR(ORPSIM-16503): Missing subcircuit name
R_RL1         0 VLOAD  {53.5/0.1} TC=0,0 
R_RL2         0 N16782759  {53.5/6} TC=0,0 
M_M1         VLOAD N16781499 N16782759 N16782759 power_Mbreakn           

**** RESUMING trans.cir ****
.END
