Circuit: * E:\Users\Alex\Documents\Electronics Projects\Modular Audio\design_simulations\PowerAmpSupply inrush limit\InrushLimit.asc

Direct Newton iteration failed to find .op point.  (Use ".option noopiter" to skip.)
Starting Gmin stepping
Gmin = 10
Gmin = 1.07374
Gmin = 0.115292
Gmin = 0.0123794
Gmin = 0.00132923
vernier = 0.5
vernier = 0.25
vernier = 0.125
vernier = 0.0625
vernier = 0.03125
vernier = 0.015625
vernier = 0.0078125
Gmin = 0.000850706
vernier = 0.00390625
vernier = 0.00195312
vernier = 0.000976562
vernier = 0.000488281
Gmin = 0
Gmin stepping failed

Starting source stepping with srcstepmethod=0
Could not converge to DC with sources off!
Starting source stepping with srcstepmethod=1
Could not converge to DC with sources off!
Pseudo Transient succeeded in finding the operating point at 12.0427 s.
Changing Tseed to 4.88281e-08
Changing Tseed to 4.88281e-10
Heightened Def Con from 0.000221963 to 0.000221968
Heightened Def Con from 0.000279055 to 0.000279057
Heightened Def Con from 0.000402041 to 0.000402041
Heightened Def Con from 0.000402041 to 0.000402043
Heightened Def Con from 0.000415901 to 0.000415901
Heightened Def Con from 0.000419369 to 0.000419369
Heightened Def Con from 0.000420514 to 0.000420515
Heightened Def Con from 0.000431137 to 0.000431137
Heightened Def Con from 0.000451066 to 0.000451066
Heightened Def Con from 0.000451066 to 0.000451068
Heightened Def Con from 0.00050386 to 0.000503862
Heightened Def Con from 0.000539725 to 0.000539727
Heightened Def Con from 0.00055141 to 0.00055141
Heightened Def Con from 0.000564216 +to 0.000564216
Heightened Def Con from 0.000599336 to 0.000599338
Heightened Def Con from 0.000635159 to 0.000635159
Heightened Def Con from 0.000646669 to 0.000646671
Heightened Def Con from 0.000666792 to 0.000666792
Heightened Def Con from 0.00068246 to 0.00068246
Heightened Def Con from 0.000759037 to 0.000759037
Heightened Def Con from 0.000770299 to 0.000770301
Heightened Def Con from 0.0186224 to 0.0186224
Heightened Def Con from 0.0190814 to 0.0190814
Heightened Def Con from 0.019353 to 0.019353
Heightened Def Con from 0.0195122 to 0.0195122
Heightened Def Con from 0.0197718 to 0.0197718
Heightened Def Con from 0.0199053 to 0.0199053
Heightened Def Con from 0.0199271 to 0.0199271
Heightened Def Con from 0.0199399 to 0.0199399
Heightened Def Con from 0.0199669 to 0.0199669
Heightened Def Con from 0.019989 to 0.019989
Heightened Def Con from 0.0200232 to 0.0200232
Heightened Def Con from 0.0200778 to 0.0200778
Heightened Def Con from 0.0201188 to 0.0201188
Heightened Def Con from 0.0302573 to 0.0302573
Heightened Def Con from 0.0487922 to 0.0487922
Heightened Def Con from 0.0491427 to 0.0491427
Heightened Def Con from 0.0496759 to 0.0496759
Heightened Def Con from 0.0497833 to 0.0497833
Heightened Def Con from 0.0498118 to 0.0498118
Heightened Def Con from 0.0499229 to 0.0499229
Heightened Def Con from 0.0499579 to 0.0499579

Date: Mon Aug 12 14:58:21 2024
Total elapsed time: 189.317 seconds.

tnom = 27
temp = 27
method = modified trap
totiter = 34359121
traniter = 34355340
tranpoints = 6629400
accept = 5001331
rejected = 1628119
matrix size = 93
fillins = 76
solver = Normal
Avg thread counts: 1.0/1.0/1.0/1.0
Matrix Compiler1: 8.07 KB object code size  1.1/0.4/[0.3]
Matrix Compiler2: 7.92 KB object code size  0.5/0.8/[0.4]

