
**** 10/22/24 11:37:40 ****** PSpice 23.1.0 (29 May 2024) ***** ID# 0 ********

 ** Profile: "TPS552892 Startup-Startup"  [ e:\users\alex\documents\electronics projects\modular audio\design_simulations\tps552892\t


 ****     CIRCUIT DESCRIPTION


******************************************************************************




** Creating circuit file "Startup.cir" 
** WARNING: THIS AUTOMATICALLY GENERATED FILE MAY BE OVERWRITTEN BY SUBSEQUENT SIMULATIONS

*Libraries: 
* Profile Libraries :
* Local Libraries :
.LIB "../../../generic_blocks.lib" 
.LIB "../../../tps552892.lib" 
* From [PSPICE NETLIST] section of C:\Users\Alex\cdssetup\OrCAD_PSpice\23.1.0\PSpice.ini file:
.lib "C:\Program Files\Cadence\OrCADX_23.1\tools\pspice\Library\nom.lib" 

*Analysis directives: 
.TRAN  0 5ms 0 50n 
.OPTIONS ADVCONV
.OPTIONS ITL1= 1000
.OPTIONS ITL2= 80
.OPTIONS ITL4= 40
.PROBE64 V(alias(*)) I(alias(*)) 
.INC "..\TPS552892 Startup.net" 



**** INCLUDING "TPS552892 Startup.net" ****
* source TPS552892
C_C8         N16777243 SW2  0.1u  TC=0,0 
R_R7         N167775671 0  1G TC=0,0 
R_R4         FB 0  {Rup/(Vout/1.2-1)} TC=0,0 
C_C7         N16777240 SW1  0.1u  TC=0,0 
R_R8         ISN 0  {Vout/Iout} TC=0,0 
L_L1         SW1 SW2  3.3uH  
C_C1         0 VIN  7u  TC=0,0 
R_R5         COMP N16777555  487k TC=0,0 
R_R2         ISN ISP  10m TC=0,0 
V_V5         EN 0  
+PULSE 0 3 10u 1u 0 1 10
C_C3         0 ISP  28u IC=-12 TC=0,0 
C_C5         0 VCC  4.7u  TC=0,0 
C_C10         0 COMP  47p  TC=0,0 
R_R3         ISN FB  {Rup} TC=0,0 
V_V1         VIN 0 {Vin}
C_C9         0 N16777555  470p  TC=0,0 
V_V4         MODE 0 {3.3*FPWM}
C_C11         0 DITH  1G  TC=0,0 
R_R1         0 FSW  33k TC=0,0 
R_R9         PG VCC  100k TC=0,0 
R_R10         CC VCC  100k TC=0,0 
X_U1         0 N16777240 N16777243 CC N167775671 COMP DITH EN 0 FB FSW ISN ISP
+  MODE PG 0 SW1 SW2 VCC VIN ISP TPS552892_SYMBOL PARAMS:  FAST_STARTUP=0
C_C12         ISN ISP  0.1u  TC=0,0 
C_C13         0 N16786097  100u  TC=0,0 
R_R11         N16786097 VIN  20m TC=0,0 
R_R12         N16786216 ISP  20m TC=0,0 
C_C15         0 N16786216  1m IC=-12 TC=0,0 
.PARAM  iout=4.9 vin=10 fpwm=1 fast_startup=1000 ss=0 vout=12.1 rup=100k

**** RESUMING Startup.cir ****
.END

WARNING(ORPSIM-15459): In device V_V5, default values (TF=1.00e-09) are used for zero TR and TF. Use the DEFTR and DEFTF options to control these defaults. To disable default value usage for zero TR and TF, specify the DISABLE_DEFAULT_PULSE_PARAMS option.

**** 10/22/24 11:37:40 ****** PSpice 23.1.0 (29 May 2024) ***** ID# 0 ********

 ** Profile: "TPS552892 Startup-Startup"  [ e:\users\alex\documents\electronics projects\modular audio\design_simulations\tps552892\t


 ****     INITIAL TRANSIENT SOLUTION       TEMPERATURE =   27.000 DEG C


******************************************************************************



 NODE   VOLTAGE     NODE   VOLTAGE     NODE   VOLTAGE     NODE   VOLTAGE


(   CC)    0.0000  (   EN)    0.0000  (   FB)    1.1844  (   PG)    0.0000      

(  FSW)    1.0000  (  ISN)   11.9430  (  ISP)   11.9910  (  SW1) 22.01E-12      

(  SW2) 22.01E-12  (  VCC)    0.0000  (  VIN)   10.0000  ( COMP)     .4667      

( DITH)    1.0000  ( MODE)    3.3000  (N16777240) 44.03E-21                     

(N16777243) 44.03E-21                 (N16777555)     .4667                     

(N16786097)   10.0000                 (N16786216)   11.9990                     

(N167775671)     .9673                




    VOLTAGE SOURCE CURRENTS
    NAME         CURRENT

    V_V5         0.000E+00
    V_V1        -1.001E-08
    V_V4        -4.125E-06

    TOTAL POWER DISSIPATION   1.37E-05  WATTS

Reducing minimum delta to make the circuit converge.
Reducing minimum delta to make the circuit converge.
Reducing minimum delta to make the circuit converge.
Reducing minimum delta to make the circuit converge.

ERROR(ORPSIM-15138): Convergence problem in Transient Analysis at Time =  15.07E-06.
         Time step =  502.9E-21, minimum allowable step size =  1.000E-18

  These voltages failed to converge:

    V(X_U1.X_U552892.X_U7.N16782074) =   757.81mV  \   750.00mV
    V(X_U1.X_U552892.X_U7.X_U617.INM1) =   594.69mV  \   602.50mV

  These supply currents failed to converge:

    I(X_U1.X_U552892.X_U7.E_ABM2) =   110.96mA  \   463.15uA
    I(X_U1.X_U552892.V_V31)   =   -4.191nA  \   -4.657nA

  These devices failed to converge:
    X_U1.X_U552892.X_U2.D_D2 X_U1.X_U552892.X_U11.D_D5 



  Last node voltages tried were:

 NODE   VOLTAGE     NODE   VOLTAGE     NODE   VOLTAGE     NODE   VOLTAGE


(   CC)    5.1995  (   EN)    3.0000  (   FB)    1.1654  (   PG)    5.1995      

(  FSW)    1.0000  (  ISN)   11.7490  (  ISP)   11.7960  (  SW1)   10.0480      

(  SW2)    -.0477  (  VCC)    5.2000  (  VIN)   10.0000  ( COMP)     .7882      

( DITH)    1.0000  ( MODE)    3.3000  (N16777240)   15.2420                     

(N16777243)    5.1460                 (N16777555)     .4708                     

(N16786097)   10.0000                 (N16786216)   11.9310                     

(N167775671)     .9516                


**** Interrupt ****
