
**** 07/09/24 22:20:11 ****** PSpice 23.1.0 (29 May 2024) ***** ID# 0 ********

 ** Profile: "STEADY_STATE-TRANS"  [ E:\Users\Alex\Documents\Electronics Projects\Modular Audio\lm54406F\LMR54406F_PSPICE_TRANS\lmr54


 ****     CIRCUIT DESCRIPTION


******************************************************************************




** Creating circuit file "TRANS.cir" 
** WARNING: THIS AUTOMATICALLY GENERATED FILE MAY BE OVERWRITTEN BY SUBSEQUENT SIMULATIONS

*Libraries: 
* Profile Libraries :
* Local Libraries :
.LIB "../../../LMR54406F_TRANS.lib" 
.LIB "E:/Users/Alex/Documents/Electronics Projects/Modular Audio/lm54406F/tps7a4700_pspice_trans/tps7a4700_trans.lib" 
* From [PSPICE NETLIST] section of C:\Users\Alex\cdssetup\OrCAD_PSpice\23.1.0\PSpice.ini file:
.lib "nom.lib" 

*Analysis directives: 
.TRAN  0 6m 0 20n 
.OPTIONS ADVCONV
.OPTIONS ABSTOL= 1n
.OPTIONS ITL4= 20
.PROBE64 V(alias(*)) I(alias(*)) 
.INC "..\STEADY_STATE.net" 



**** INCLUDING STEADY_STATE.net ****
* source LMR54406F_TRANS
C_C3         N16770009 SW  0.1u IC=0 
R_R5         0 FB  22.1k  
V_V1         VIN 0  
+PULSE 11 13 3m 10u 10u 1m 2
X_U1         N16770009 VIN FB 0 SW VIN LMR54406F_TRANS PARAMS: MODE=1
X_C9         VIN 0 CESR PARAMS:  C=100n  ESR=20m X=1  IC=0
X_C8         VIN 0 CESR PARAMS:  C=2u  ESR=3m X=1  IC=0
R_R3         FB VOUT  169k TC=0,0 
X_L1         SW VOUT LDCR PARAMS:  L=12u  DCR=100m IC=0
C_C6         0 VOUT  100n  TC=0,0 
X_C4         VOUT 0 CESR PARAMS:  C=20u  ESR=2m X=1  IC=0
I_I1         VOUTL 0 DC 0Adc AC 0Aac
+PULSE 10m 300m 2m 10u 10u 3m 2
R_RS9         N16780566 0  4m TC=0,0 
C_C13         VINLIN N16780564  100n  TC=0,0 
R_R8         N16780568 0  3.3 TC=0,0 
X_L2         VOUT VINLIN LDCR PARAMS:  L=1m  DCR=2.73 IC=0
C_C14         VINLIN N16780566  10u IC=10m TC=0,0 
R_RS8         N16780564 0  1m TC=0,0 
C_C15         VINLIN N16780568  100u IC=0 TC=0,0 
X_U2          N16782311 N16782403 0 N16782305 N16782308 0 N16782508 N16782511
+  N16782452 0 N16781807 VOUTL VINLIN VINLIN VOUTL VOUTL TPS7A4700_TRANS
C_C17         VOUTL N16781675  33u IC=10m TC=0,0 
R_RS11         N16781675 0  1.4m TC=0,0 
C_C18         VOUTL N16781678  100u IC=1 TC=0,0 
R_RS10         N16781672 0  1m TC=0,0 
C_C16         VOUTL N16781672  100n  TC=0,0 
C_C19         N16781807 0  20n  TC=0,0 
R_RS12         N16781678 0  10m TC=0,0 
V_V2         N16782452 0  
+PULSE 0 7 700u 10u 10u 1 2

**** RESUMING TRANS.cir ****
.END

**** 07/09/24 22:20:11 ****** PSpice 23.1.0 (29 May 2024) ***** ID# 0 ********

 ** Profile: "STEADY_STATE-TRANS"  [ E:\Users\Alex\Documents\Electronics Projects\Modular Audio\lm54406F\LMR54406F_PSPICE_TRANS\lmr54


 ****     INITIAL TRANSIENT SOLUTION       TEMPERATURE =   27.000 DEG C


******************************************************************************



 NODE   VOLTAGE     NODE   VOLTAGE     NODE   VOLTAGE     NODE   VOLTAGE


(   FB)    -.1153  (   SW)    5.4726  (  VIN)   11.0000  ( VOUT)-2.706E-09      

(VOUTL)     .2285  (VINLIN)     .0100 (X_U2.VXX) 1.007E-06                      

(X_U2.VYY) 1.007E-06                  (X_U2.VZZ) 1.007E-06                      

(N16770009)    5.4726                 (N16780564)    0.0000                     

(N16780566)-12.09E-06                 (N16780568)     .0100                     

(N16781672)    0.0000                 (N16781675)     .0900                     

(N16781678)    -.6429                 (N16781807)    0.0000                     

(N16782305)    0.0000                 (N16782308)    0.0000                     

(N16782311)    0.0000                 (N16782403)    0.0000                     

(N16782452)    0.0000                 (N16782508)    0.0000                     

(N16782511)    0.0000                 (X_U2.IREF)    0.0000                     

(X_U2.LOAD)-228.5E-12                 (X_U2.ROUT)    0.0000                     

(X_U2.VINT) 9.971E-09                 (X_U2.VREF)    0.0000                     

(X_U2.ENSYS)    0.0000                (X_U2.EN_OK)    0.0000                    

(X_U2.VOUT1)     .2285                (X_U2.V_FBK)     .2285                    

(X_U2.EN_INT)    0.0000               (X_U2.VIN_OK)    0.0000                   

(X_U2.X_X1.6) 1.007E-06               (X_U2.N430233) 1.007E-06                  

(X_U2.N430319)     .0100              (X_U2.N430499)    0.0000                  

(X_U2.N430503)     .2285              (X_U2.N431153) 1.007E-06                  

(X_U2.N431299) 1.007E-06              (X_U2.N448013) 1.007E-06                  

(X_U2.N523713) 1.007E-06              (X_U2.N672860)    0.0000                  

(X_U2.N677016)    0.0000              (X_U2.N702559) 228.5E-12                  

(X_U2.U1_DROP)     .2160              (X_U2.VIN_INT)     .0100                  

(X_U2.Vzz_INT) 1.007E-06              (X_U2.U1_EN_IH)    2.0000                 

(X_U2.VREF_INT)    0.0000             (X_U2.U1_EN_HYS)    1.6000                

(X_U2.X_U1_U16.1)    0.0000           (X_U2.X_U1_U17.1)    0.0000               

(X_U2.U1_N16777354)    2.6700         (X_U2.U1_N16777400)    0.0000             

(X_U2.U1_N16777525)    0.0000         (X_U2.U1_N16777579)    0.0000             

(X_U2.U1_N16777592)    0.0000         (X_U2.U1_N16782898)     .1770             

(X_U2.U1_N16796943)    0.0000         (X_U2.U1_N16803077)    1.0000             

(X_U2.U1_PRE_EN_OK)    0.0000         (X_U2.X_U1_U16.INM1)    2.6600            

(X_U2.X_U1_U16.INP1)    0.0000        (X_U2.X_U1_U16.INP2)    0.0000            

(X_U2.X_U1_U17.INM1)    2.0000        (X_U2.X_U1_U17.INP1)    0.0000            

(X_U2.X_U1_U17.INP2)    0.0000        




    VOLTAGE SOURCE CURRENTS
    NAME         CURRENT

    V_V1        -2.700E+03
    V_V2         0.000E+00
    X_U2.V_Vload  -2.286E-10
    X_U2.V_U1_V5   0.000E+00
    X_U2.V_U1_V6   0.000E+00
    X_U2.V_U1_V3   0.000E+00
    X_U2.V_U1_V4   0.000E+00
    X_U2.X_X1.vsense   2.285E-10
    X_U2.X_H2.VH_H2  -2.285E-10
    X_U2.X_F1.VF_F1  -2.285E-10
    X_U2.X_H3.VH_H3   0.000E+00

    TOTAL POWER DISSIPATION   2.97E+04  WATTS

Reducing minimum delta to make the circuit converge.
Reducing minimum delta to make the circuit converge.
Reducing minimum delta to make the circuit converge.
Reducing minimum delta to make the circuit converge.

ERROR(ORPSIM-15138): Convergence problem in Transient Analysis at Time =  755.7E-06.
         Time step =  175.0E-21, minimum allowable step size =  1.000E-18

  These voltages failed to converge:

    V(N16780566)              =    15.47mV  \    15.31mV
    V(N16780564)              =   194.58uV  \    38.74uV
    V(X_U1.EA_VCOMPVT)        =     1.277V  \     1.275V
    V(X_U1.EA_N16751770)      =     1.149V  \     1.148V
    V(X_U1.EA_N16752031)      =   537.16mV  \   535.64mV
    V(X_U1.EA_N16752093)      =   537.16mV  \   535.64mV
    V(X_U1.VCOMP)             =   537.16mV  \   535.64mV
    V(X_U1.GmIp_N17078692)    =   537.16mV  \   535.64mV
    V(X_U1.GmIp_N00668)       =   536.71mV  \   535.19mV

  These supply currents failed to converge:

    I(X_U2.E_U1_ABM4)         =   -6.577uA  \   -3.659uA
    I(V_V1)                   =  -513.84mA  \  -514.91mA
    I(X_U1.V_EA_V22)          =    52.18nA  \    53.77nA
    I(X_U1.V_V2)              =   -2.930mA  \   -1.885mA
    I(X_U1.X_Drv_U843.v2)     =    3.108nA  \    25.34pA
    I(X_U1.X_EA_U677.v1)      =    2.055nA  \    14.72pA
    I(X_U1.X_GmIp_H1.VH_GmIp_H1) =    8.546uA  \    8.530uA
    I(X_U1.X_Osc_U863.v1)     =   -2.333nA  \   -19.29pA
    I(X_U1.X_LGC_U624.v1)     =   -2.873nA  \   -23.50pA



  Last node voltages tried were:

 NODE   VOLTAGE     NODE   VOLTAGE     NODE   VOLTAGE     NODE   VOLTAGE


(   FB)     .8054  (   SW)   10.7680  (  VIN)   11.0000  ( VOUT)    6.9641      

(VOUTL) 73.54E-06  (VINLIN)   11.7790 (X_U2.VXX)    -.0880                      

(X_U2.VYY)    -.0875                  (X_U2.VZZ)    -.0055                      

(N16770009)   16.7230                 (N16780564) 194.6E-06                     

(N16780566)     .0155                 (N16780568)    7.2938                     

(N16781672)-3.472E-06                 (N16781675)    -.0020                     

(N16781678)    -.0407                 (N16781807)     .1931                     

(N16782305)    1.1995                 (N16782308)    1.1998                     

(N16782311)    1.1962                 (N16782403)    1.1981                     

(N16782452)    7.0000                 (N16782508)    1.1999                     

(N16782511)    1.1999                 (X_U2.IREF) 14.27E-06                     

(X_U2.LOAD)   -5.4765                 (X_U2.ROUT)     .0150                     

(X_U2.VINT)     .1895                 (X_U2.VREF)    4.9888                     

(X_U2.ENSYS)    1.0000                (X_U2.EN_OK)     .9883                    

(X_U2.VOUT1) 73.54E-06                (X_U2.V_FBK) 73.54E-06                    

(X_U2.EN_INT)    7.0000               (X_U2.VIN_OK)    1.0000                   

(X_U2.X_X1.6)    -.0875               (X_U2.N430233)    -.0055                  

(X_U2.N430319)  878.7100              (X_U2.N430499)     .4038                  

(X_U2.N430503) 73.54E-06              (X_U2.N431153)    -.0880                  

(X_U2.N431299)    -.0055              (X_U2.N448013)    -.0880                  

(X_U2.N523713)    -.0880              (X_U2.N672860)    1.2000                  

(X_U2.N677016)    1.2000              (X_U2.N702559)    5.4765                  

(X_U2.U1_DROP)     .2160              (X_U2.VIN_INT)   11.7790                  

(X_U2.Vzz_INT)    -.0055              (X_U2.U1_EN_IH)    2.0000                 

(X_U2.VREF_INT)    4.9888             (X_U2.U1_EN_HYS)    1.6000                

(X_U2.X_U1_U16.1)    1.0000           (X_U2.X_U1_U17.1)    1.0000               

(X_U2.U1_N16777354)    2.6700         (X_U2.U1_N16777400)     .1931             

(X_U2.U1_N16777525)     .1932         (X_U2.U1_N16777579)     .1931             

(X_U2.U1_N16777592)     .1931         (X_U2.U1_N16782898)     .1770             

(X_U2.U1_N16796943)     .1931         (X_U2.U1_N16803077)    0.0000             

(X_U2.U1_PRE_EN_OK)    1.0000         (X_U2.X_U1_U16.INM1)   -9.1089            

(X_U2.X_U1_U16.INP1)    0.0000        (X_U2.X_U1_U16.INP2)     .1770            

(X_U2.X_U1_U17.INM1)   -5.0000        (X_U2.X_U1_U17.INP1)    0.0000            

(X_U2.X_U1_U17.INP2)    1.6000        


**** Interrupt ****

ERROR(ORPSIM-15138): Convergence problem in Transient Analysis at Time =  755.7E-06.
         Time step =  175.0E-21, minimum allowable step size =  1.000E-18

  These voltages failed to converge:

    V(N16780566)              =    15.52mV  \    15.31mV
    V(N16780564)              =   244.57uV  \    38.74uV
    V(X_U1.EA_VCOMPVT)        =     1.277V  \     1.275V
    V(X_U1.EA_N16751770)      =     1.149V  \     1.148V
    V(X_U1.EA_N16752031)      =   537.16mV  \   535.64mV
    V(X_U1.EA_N16752093)      =   537.16mV  \   535.64mV
    V(X_U1.VCOMP)             =   537.16mV  \   535.64mV
    V(X_U1.GmIp_N17078692)    =   537.16mV  \   535.64mV
    V(X_U1.GmIp_N00668)       =   536.71mV  \   535.19mV

  These supply currents failed to converge:

    I(X_U2.E_U1_ABM4)         =   -4.739uA  \   -3.659uA
    I(V_V1)                   =  -513.85mA  \  -514.91mA
    I(X_U1.V_EA_V22)          =    52.18nA  \    53.77nA
    I(X_U1.V_V2)              =   -1.953mA  \   -1.885mA
    I(X_U1.X_Drv_U843.v2)     =    3.108nA  \    25.34pA
    I(X_U1.X_EA_U677.v1)      =    2.054nA  \    14.72pA
    I(X_U1.X_GmIp_H1.VH_GmIp_H1) =    8.546uA  \    8.530uA
    I(X_U1.X_Osc_U863.v1)     =   -2.333nA  \   -19.29pA
    I(X_U1.X_LGC_U624.v1)     =   -2.872nA  \   -23.50pA



  Last node voltages tried were:

 NODE   VOLTAGE     NODE   VOLTAGE     NODE   VOLTAGE     NODE   VOLTAGE


(   FB)     .8054  (   SW)   10.7680  (  VIN)   11.0000  ( VOUT)    6.9641      

(VOUTL) 73.01E-06  (VINLIN)   11.7790 (X_U2.VXX)    -.0880                      

(X_U2.VYY)    -.0875                  (X_U2.VZZ)    -.0055                      

(N16770009)   16.7230                 (N16780564) 244.6E-06                     

(N16780566)     .0155                 (N16780568)    7.2939                     

(N16781672)-3.996E-06                 (N16781675)    -.0020                     

(N16781678)    -.0407                 (N16781807)     .1931                     

(N16782305)    1.1995                 (N16782308)    1.1998                     

(N16782311)    1.1962                 (N16782403)    1.1981                     

(N16782452)    7.0000                 (N16782508)    1.1999                     

(N16782511)    1.1999                 (X_U2.IREF) 14.27E-06                     

(X_U2.LOAD)   -5.4769                 (X_U2.ROUT)     .0150                     

(X_U2.VINT)     .1895                 (X_U2.VREF)    4.9888                     

(X_U2.ENSYS)    1.0000                (X_U2.EN_OK)     .9883                    

(X_U2.VOUT1) 73.01E-06                (X_U2.V_FBK) 73.01E-06                    

(X_U2.EN_INT)    7.0000               (X_U2.VIN_OK)    1.0000                   

(X_U2.X_X1.6)    -.0875               (X_U2.N430233)    -.0055                  

(X_U2.N430319)  878.7100              (X_U2.N430499)     .4038                  

(X_U2.N430503) 73.01E-06              (X_U2.N431153)    -.0880                  

(X_U2.N431299)    -.0055              (X_U2.N448013)    -.0880                  

(X_U2.N523713)    -.0880              (X_U2.N672860)    1.2000                  

(X_U2.N677016)    1.2000              (X_U2.N702559)    5.4769                  

(X_U2.U1_DROP)     .2160              (X_U2.VIN_INT)   11.7790                  

(X_U2.Vzz_INT)    -.0055              (X_U2.U1_EN_IH)    2.0000                 

(X_U2.VREF_INT)    4.9888             (X_U2.U1_EN_HYS)    1.6000                

(X_U2.X_U1_U16.1)    1.0000           (X_U2.X_U1_U17.1)    1.0000               

(X_U2.U1_N16777354)    2.6700         (X_U2.U1_N16777400)     .1931             

(X_U2.U1_N16777525)     .1931         (X_U2.U1_N16777579)     .1931             

(X_U2.U1_N16777592)     .1931         (X_U2.U1_N16782898)     .1770             

(X_U2.U1_N16796943)     .1931         (X_U2.U1_N16803077)    0.0000             

(X_U2.U1_PRE_EN_OK)    1.0000         (X_U2.X_U1_U16.INM1)   -9.1090            

(X_U2.X_U1_U16.INP1)    0.0000        (X_U2.X_U1_U16.INP2)     .1770            

(X_U2.X_U1_U17.INM1)   -5.0000        (X_U2.X_U1_U17.INP1)    0.0000            

(X_U2.X_U1_U17.INP2)    1.6000        


**** Interrupt ****
